FoamFile {
    version     2.0;
    format      ascii;
    class       dictionary;
    location    "system";
    object      controlDict;
}

startFrom           startTime;
startTime           0;
stopAt              endTime;
endTime             10;
deltaT              3;
writeControl        runTime;
writeInterval       1;
writeFormat         ascii;
writePrecision      12;
writeCompression    uncompressed;
timeFormat          fixed;
timePrecision       0;
